<?xml version="1.0" encoding="utf-8"?>
<!DOCTYPE population SYSTEM "http://www.matsim.org/files/dtd/population_v6.dtd">

<population>


    <!-- ====================================================================== -->

    <person id="基隆市七堵區-基隆市七堵區1">
        <plan selected="yes">
            <activity type="home" x="118.75565836989833" y="2.2690091871691123E-4" end_time="09:17:04">
            </activity>
            <leg mode="car">
            </leg>
            <activity type="work" x="118.75565879129834" y="2.2668657136628396E-4" end_time="17:17:04">
            </activity>
            <leg mode="car">
            </leg>
            <activity type="home" x="118.75565836989833" y="2.2690091871691123E-4">
            </activity>
        </plan>

    </person>

    <!-- ====================================================================== -->

    <person id="基隆市七堵區-基隆市七堵區2">
        <plan selected="yes">
            <activity type="home" x="118.75565834902908" y="2.2712269272698362E-4" end_time="09:14:26">
            </activity>
            <leg mode="scooter">
            </leg>
            <activity type="work" x="118.75565844235085" y="2.2713233839012815E-4" end_time="17:14:26">
            </activity>
            <leg mode="scooter">
            </leg>
            <activity type="home" x="118.75565834902908" y="2.2712269272698362E-4">
            </activity>
        </plan>

    </person>

    <!-- ====================================================================== -->

    <person id="基隆市七堵區-基隆市七堵區3">
        <plan selected="yes">
            <activity type="home" x="118.75565821642712" y="2.268266072111898E-4" end_time="09:19:14">
            </activity>
            <leg mode="scooter">
            </leg>
            <activity type="work" x="118.75565862873418" y="2.2666196660594352E-4" end_time="17:19:14">
            </activity>
            <leg mode="scooter">
            </leg>
            <activity type="home" x="118.75565821642712" y="2.268266072111898E-4">
            </activity>
        </plan>

    </person>

    <!-- ====================================================================== -->

    <person id="基隆市七堵區-基隆市七堵區4">
        <plan selected="yes">
            <activity type="home" x="118.7556587191927" y="2.267517298143658E-4" end_time="09:01:35">
            </activity>
            <leg mode="scooter">
            </leg>
            <activity type="work" x="118.75565855292525" y="2.2678816204687455E-4" end_time="17:01:35">
            </activity>
            <leg mode="scooter">
            </leg>
            <activity type="home" x="118.7556587191927" y="2.267517298143658E-4">
            </activity>
        </plan>

    </person>

    <!-- ====================================================================== -->

    <person id="基隆市七堵區-基隆市七堵區5">
        <plan selected="yes">
            <activity type="home" x="118.75565810956367" y="2.270899069839361E-4" end_time="09:44:59">
            </activity>
            <leg mode="bus">
            </leg>
            <activity type="work" x="118.75565826333525" y="2.2714701878547155E-4" end_time="17:44:59">
            </activity>
            <leg mode="bus">
            </leg>
            <activity type="home" x="118.75565810956367" y="2.270899069839361E-4">
            </activity>
        </plan>

    </person>

    <!-- ====================================================================== -->

    <person id="基隆市七堵區-基隆市七堵區6">
        <plan selected="yes">
            <activity type="home" x="118.75565848343632" y="2.2701437394719988E-4" end_time="09:44:32">
            </activity>
            <leg mode="walk">
            </leg>
            <activity type="work" x="118.75565869837075" y="2.2686599431084398E-4" end_time="17:44:32">
            </activity>
            <leg mode="walk">
            </leg>
            <activity type="home" x="118.75565848343632" y="2.2701437394719988E-4">
            </activity>
        </plan>

    </person>

    <!-- ====================================================================== -->

    <person id="基隆市七堵區-新北市汐止區1">
        <plan selected="yes">
            <activity type="home" x="118.75565804704523" y="2.2725074136161028E-4" end_time="09:10:55">
            </activity>
            <leg mode="car">
            </leg>
            <activity type="work" x="118.7556580684237" y="2.264852020762831E-4" end_time="17:10:55">
            </activity>
            <leg mode="car">
            </leg>
            <activity type="home" x="118.75565804704523" y="2.2725074136161028E-4">
            </activity>
        </plan>

    </person>

    <!-- ====================================================================== -->

    <person id="基隆市七堵區-新北市汐止區2">
        <plan selected="yes">
            <activity type="home" x="118.75565817917764" y="2.2719186997427503E-4" end_time="09:06:15">
            </activity>
            <leg mode="scooter">
            </leg>
            <activity type="work" x="118.75565806859262" y="2.2675797158816985E-4" end_time="17:06:15">
            </activity>
            <leg mode="scooter">
            </leg>
            <activity type="home" x="118.75565817917764" y="2.2719186997427503E-4">
            </activity>
        </plan>

    </person>

    <!-- ====================================================================== -->

    <person id="基隆市七堵區-新北市汐止區3">
        <plan selected="yes">
            <activity type="home" x="118.75565824506319" y="2.2711596465486723E-4" end_time="09:59:55">
            </activity>
            <leg mode="bus">
            </leg>
            <activity type="work" x="118.75565808295461" y="2.2659765523034563E-4" end_time="17:59:55">
            </activity>
            <leg mode="bus">
            </leg>
            <activity type="home" x="118.75565824506319" y="2.2711596465486723E-4">
            </activity>
        </plan>

    </person>

    <!-- ====================================================================== -->

    <person id="基隆市中山區-基隆市中山區1">
        <plan selected="yes">
            <activity type="home" x="118.75565901405383" y="2.272448790471473E-4" end_time="09:42:49">
            </activity>
            <leg mode="scooter">
            </leg>
            <activity type="work" x="118.75565899636528" y="2.2733019340059185E-4" end_time="17:42:49">
            </activity>
            <leg mode="scooter">
            </leg>
            <activity type="home" x="118.75565901405383" y="2.272448790471473E-4">
            </activity>
        </plan>

    </person>

    <!-- ====================================================================== -->

    <person id="基隆市中山區-基隆市中山區2">
        <plan selected="yes">
            <activity type="home" x="118.75565903562679" y="2.273306216836417E-4" end_time="09:32:25">
            </activity>
            <leg mode="scooter">
            </leg>
            <activity type="work" x="118.75565887577878" y="2.2725840585040118E-4" end_time="17:32:25">
            </activity>
            <leg mode="scooter">
            </leg>
            <activity type="home" x="118.75565903562679" y="2.273306216836417E-4">
            </activity>
        </plan>

    </person>

    <!-- ====================================================================== -->

    <person id="基隆市中山區-基隆市中山區3">
        <plan selected="yes">
            <activity type="home" x="118.75565895052742" y="2.2718132827098106E-4" end_time="09:49:37">
            </activity>
            <leg mode="scooter">
            </leg>
            <activity type="work" x="118.7556588316513" y="2.2736079709104222E-4" end_time="17:49:37">
            </activity>
            <leg mode="scooter">
            </leg>
            <activity type="home" x="118.75565895052742" y="2.2718132827098106E-4">
            </activity>
        </plan>

    </person>

    <!-- ====================================================================== -->

    <person id="基隆市中山區-基隆市中山區4">
        <plan selected="yes">
            <activity type="home" x="118.75565892085534" y="2.27170748157118E-4" end_time="09:51:48">
            </activity>
            <leg mode="bus">
            </leg>
            <activity type="work" x="118.75565899259921" y="2.2731615286804456E-4" end_time="17:51:48">
            </activity>
            <leg mode="bus">
            </leg>
            <activity type="home" x="118.75565892085534" y="2.27170748157118E-4">
            </activity>
        </plan>

    </person>

    <!-- ====================================================================== -->

    <person id="基隆市中山區-基隆市中山區5">
        <plan selected="yes">
            <activity type="home" x="118.75565877135804" y="2.2732490331075773E-4" end_time="09:23:26">
            </activity>
            <leg mode="walk">
            </leg>
            <activity type="work" x="118.75565876812489" y="2.2729724630449807E-4" end_time="17:23:26">
            </activity>
            <leg mode="walk">
            </leg>
            <activity type="home" x="118.75565877135804" y="2.2732490331075773E-4">
            </activity>
        </plan>

    </person>

    <!-- ====================================================================== -->

    <person id="基隆市中山區-基隆市中正區1">
        <plan selected="yes">
            <activity type="home" x="118.75565874168596" y="2.2731432320208348E-4" end_time="09:15:39">
            </activity>
            <leg mode="scooter">
            </leg>
            <activity type="work" x="118.75565908468766" y="2.2721298047725735E-4" end_time="17:15:39">
            </activity>
            <leg mode="scooter">
            </leg>
            <activity type="home" x="118.75565874168596" y="2.2731432320208348E-4">
            </activity>
        </plan>

    </person>

    <!-- ====================================================================== -->

    <person id="基隆市中山區-基隆市仁愛區1">
        <plan selected="yes">
            <activity type="home" x="118.75565903380469" y="2.272154548309846E-4" end_time="09:31:45">
            </activity>
            <leg mode="scooter">
            </leg>
            <activity type="work" x="118.75565903218869" y="2.269488623065776E-4" end_time="17:31:45">
            </activity>
            <leg mode="scooter">
            </leg>
            <activity type="home" x="118.75565903380469" y="2.272154548309846E-4">
            </activity>
        </plan>

    </person>

    <!-- ====================================================================== -->

    <person id="基隆市中山區-基隆市仁愛區2">
        <plan selected="yes">
            <activity type="home" x="118.75565894998309" y="2.2726027221445656E-4" end_time="09:21:48">
            </activity>
            <leg mode="scooter">
            </leg>
            <activity type="work" x="118.75565896562375" y="2.2700781738758954E-4" end_time="17:21:48">
            </activity>
            <leg mode="scooter">
            </leg>
            <activity type="home" x="118.75565894998309" y="2.2726027221445656E-4">
            </activity>
        </plan>

    </person>

    <!-- ====================================================================== -->

    <person id="基隆市中山區-基隆市仁愛區3">
        <plan selected="yes">
            <activity type="home" x="118.7556586967549" y="2.273731622487972E-4" end_time="09:01:30">
            </activity>
            <leg mode="bus">
            </leg>
            <activity type="work" x="118.7556589506912" y="2.26999642281619E-4" end_time="17:01:30">
            </activity>
            <leg mode="bus">
            </leg>
            <activity type="home" x="118.7556586967549" y="2.273731622487972E-4">
            </activity>
        </plan>

    </person>

    <!-- ====================================================================== -->

    <person id="基隆市中山區-基隆市信義區1">
        <plan selected="yes">
            <activity type="home" x="118.75565890487722" y="2.271589963785234E-4" end_time="09:33:36">
            </activity>
            <leg mode="bus">
            </leg>
            <activity type="work" x="118.7556591683545" y="2.2701962172740674E-4" end_time="17:33:36">
            </activity>
            <leg mode="bus">
            </leg>
            <activity type="home" x="118.75565890487722" y="2.271589963785234E-4">
            </activity>
        </plan>

    </person>

    <!-- ====================================================================== -->

    <person id="基隆市中山區-基隆市安樂區1">
        <plan selected="yes">
            <activity type="home" x="118.75565888527586" y="2.2737788145908255E-4" end_time="09:37:25">
            </activity>
            <leg mode="scooter">
            </leg>
            <activity type="work" x="118.75565848280876" y="2.2725448237807266E-4" end_time="17:37:25">
            </activity>
            <leg mode="scooter">
            </leg>
            <activity type="home" x="118.75565888527586" y="2.2737788145908255E-4">
            </activity>
        </plan>

    </person>

    <!-- ====================================================================== -->

    <person id="基隆市中正區-基隆市中正區1">
        <plan selected="yes">
            <activity type="home" x="118.75565907032097" y="2.2720842776132098E-4" end_time="09:41:56">
            </activity>
            <leg mode="car">
            </leg>
            <activity type="work" x="118.75565912345738" y="2.2724374069099857E-4" end_time="17:41:56">
            </activity>
            <leg mode="car">
            </leg>
            <activity type="home" x="118.75565907032097" y="2.2720842776132098E-4">
            </activity>
        </plan>

    </person>

    <!-- ====================================================================== -->

    <person id="基隆市中正區-基隆市中正區2">
        <plan selected="yes">
            <activity type="home" x="118.75565914327302" y="2.2728145484708837E-4" end_time="09:50:30">
            </activity>
            <leg mode="scooter">
            </leg>
            <activity type="work" x="118.75565910903703" y="2.271941107397964E-4" end_time="17:50:30">
            </activity>
            <leg mode="scooter">
            </leg>
            <activity type="home" x="118.75565914327302" y="2.2728145484708837E-4">
            </activity>
        </plan>

    </person>

    <!-- ====================================================================== -->

    <person id="基隆市中正區-基隆市中正區3">
        <plan selected="yes">
            <activity type="home" x="118.75566199568924" y="2.3165535289603573E-4" end_time="09:18:50">
            </activity>
            <leg mode="scooter">
            </leg>
            <activity type="work" x="118.75565918627977" y="2.2722457092918576E-4" end_time="17:18:50">
            </activity>
            <leg mode="scooter">
            </leg>
            <activity type="home" x="118.75566199568924" y="2.3165535289603573E-4">
            </activity>
        </plan>

    </person>

    <!-- ====================================================================== -->

    <person id="基隆市中正區-基隆市中正區4">
        <plan selected="yes">
            <activity type="home" x="118.75566202550921" y="2.3166382010277148E-4" end_time="09:18:34">
            </activity>
            <leg mode="scooter">
            </leg>
            <activity type="work" x="118.75565918531629" y="2.2734640057618004E-4" end_time="17:18:34">
            </activity>
            <leg mode="scooter">
            </leg>
            <activity type="home" x="118.75566202550921" y="2.3166382010277148E-4">
            </activity>
        </plan>

    </person>

    <!-- ====================================================================== -->

    <person id="基隆市中正區-基隆市中正區5">
        <plan selected="yes">
            <activity type="home" x="118.75565918375467" y="2.2739560897240682E-4" end_time="09:45:42">
            </activity>
            <leg mode="scooter">
            </leg>
            <activity type="work" x="118.75565928237394" y="2.2730680416093864E-4" end_time="17:45:42">
            </activity>
            <leg mode="scooter">
            </leg>
            <activity type="home" x="118.75565918375467" y="2.2739560897240682E-4">
            </activity>
        </plan>

    </person>

    <!-- ====================================================================== -->

    <person id="基隆市中正區-基隆市中正區6">
        <plan selected="yes">
            <activity type="home" x="118.7556591721846" y="2.2733866187775773E-4" end_time="09:13:22">
            </activity>
            <leg mode="bus">
            </leg>
            <activity type="work" x="118.75566195524655" y="2.316491883708996E-4" end_time="17:13:22">
            </activity>
            <leg mode="bus">
            </leg>
            <activity type="home" x="118.7556591721846" y="2.2733866187775773E-4">
            </activity>
        </plan>

    </person>

    <!-- ====================================================================== -->

    <person id="基隆市中正區-基隆市中正區7">
        <plan selected="yes">
            <activity type="home" x="118.75565921286112" y="2.2727058216118125E-4" end_time="09:40:26">
            </activity>
            <leg mode="bus">
            </leg>
            <activity type="work" x="118.75566193365003" y="2.3162381951196114E-4" end_time="17:40:26">
            </activity>
            <leg mode="bus">
            </leg>
            <activity type="home" x="118.75565921286112" y="2.2727058216118125E-4">
            </activity>
        </plan>

    </person>

    <!-- ====================================================================== -->

    <person id="基隆市中正區-基隆市中正區8">
        <plan selected="yes">
            <activity type="home" x="118.75565931572275" y="2.2731551353365084E-4" end_time="09:42:16">
            </activity>
            <leg mode="walk">
            </leg>
            <activity type="work" x="118.75566221408819" y="2.303122521046E-4" end_time="17:42:16">
            </activity>
            <leg mode="walk">
            </leg>
            <activity type="home" x="118.75565931572275" y="2.2731551353365084E-4">
            </activity>
        </plan>

    </person>

    <!-- ====================================================================== -->

    <person id="基隆市中正區-基隆市仁愛區1">
        <plan selected="yes">
            <activity type="home" x="118.75565923602275" y="2.2729690099850287E-4" end_time="09:37:44">
            </activity>
            <leg mode="taxi">
            </leg>
            <activity type="work" x="118.75565894850222" y="2.2706678100927635E-4" end_time="17:37:44">
            </activity>
            <leg mode="taxi">
            </leg>
            <activity type="home" x="118.75565923602275" y="2.2729690099850287E-4">
            </activity>
        </plan>

    </person>

    <!-- ====================================================================== -->

    <person id="基隆市中正區-基隆市信義區1">
        <plan selected="yes">
            <activity type="home" x="118.75566222093714" y="2.303366529562379E-4" end_time="09:26:43">
            </activity>
            <leg mode="scooter">
            </leg>
            <activity type="work" x="118.75565922033917" y="2.270251247843814E-4" end_time="17:26:43">
            </activity>
            <leg mode="scooter">
            </leg>
            <activity type="home" x="118.75566222093714" y="2.303366529562379E-4">
            </activity>
        </plan>

    </person>

    <!-- ====================================================================== -->

    <person id="基隆市仁愛區-基隆市中正區1">
        <plan selected="yes">
            <activity type="home" x="118.75565901530267" y="2.2709645328784528E-4" end_time="09:13:03">
            </activity>
            <leg mode="walk">
            </leg>
            <activity type="work" x="118.75565943703094" y="2.2722150111713872E-4" end_time="17:13:03">
            </activity>
            <leg mode="walk">
            </leg>
            <activity type="home" x="118.75565901530267" y="2.2709645328784528E-4">
            </activity>
        </plan>

    </person>

    <!-- ====================================================================== -->

    <person id="基隆市仁愛區-基隆市仁愛區1">
        <plan selected="yes">
            <activity type="home" x="118.75565900245957" y="2.271090424938171E-4" end_time="09:00:21">
            </activity>
            <leg mode="scooter">
            </leg>
            <activity type="work" x="118.75565898145663" y="2.270741946445725E-4" end_time="17:00:21">
            </activity>
            <leg mode="scooter">
            </leg>
            <activity type="home" x="118.75565900245957" y="2.271090424938171E-4">
            </activity>
        </plan>

    </person>

    <!-- ====================================================================== -->

    <person id="基隆市仁愛區-基隆市仁愛區2">
        <plan selected="yes">
            <activity type="home" x="118.75565906564273" y="2.270620505983736E-4" end_time="09:05:15">
            </activity>
            <leg mode="scooter">
            </leg>
            <activity type="work" x="118.75565895279054" y="2.2697157691894585E-4" end_time="17:05:15">
            </activity>
            <leg mode="scooter">
            </leg>
            <activity type="home" x="118.75565906564273" y="2.270620505983736E-4">
            </activity>
        </plan>

    </person>

    <!-- ====================================================================== -->

    <person id="基隆市仁愛區-基隆市仁愛區3">
        <plan selected="yes">
            <activity type="home" x="118.75565900495734" y="2.2700658132799174E-4" end_time="09:14:26">
            </activity>
            <leg mode="scooter">
            </leg>
            <activity type="work" x="118.755658937858" y="2.2696340181297574E-4" end_time="17:14:26">
            </activity>
            <leg mode="scooter">
            </leg>
            <activity type="home" x="118.75565900495734" y="2.2700658132799174E-4">
            </activity>
        </plan>

    </person>

    <!-- ====================================================================== -->

    <person id="基隆市仁愛區-基隆市仁愛區4">
        <plan selected="yes">
            <activity type="home" x="118.75565904440634" y="2.270340839542075E-4" end_time="09:42:33">
            </activity>
            <leg mode="scooter">
            </leg>
            <activity type="work" x="118.75565907416136" y="2.2708251545569666E-4" end_time="17:42:33">
            </activity>
            <leg mode="scooter">
            </leg>
            <activity type="home" x="118.75565904440634" y="2.270340839542075E-4">
            </activity>
        </plan>

    </person>

    <!-- ====================================================================== -->

    <person id="基隆市仁愛區-基隆市仁愛區5">
        <plan selected="yes">
            <activity type="home" x="118.75565900234125" y="2.2708887811954525E-4" end_time="09:07:08">
            </activity>
            <leg mode="bus">
            </leg>
            <activity type="work" x="118.75565889861352" y="2.2700158842635902E-4" end_time="17:07:08">
            </activity>
            <leg mode="bus">
            </leg>
            <activity type="home" x="118.75565900234125" y="2.2708887811954525E-4">
            </activity>
        </plan>

    </person>

    <!-- ====================================================================== -->

    <person id="基隆市仁愛區-基隆市仁愛區6">
        <plan selected="yes">
            <activity type="home" x="118.75565894350557" y="2.2712388427341082E-4" end_time="09:37:13">
            </activity>
            <leg mode="walk">
            </leg>
            <activity type="work" x="118.75565899126869" y="2.2710616252136226E-4" end_time="17:37:13">
            </activity>
            <leg mode="walk">
            </leg>
            <activity type="home" x="118.75565894350557" y="2.2712388427341082E-4">
            </activity>
        </plan>

    </person>

    <!-- ====================================================================== -->

    <person id="基隆市仁愛區-基隆市信義區1">
        <plan selected="yes">
            <activity type="home" x="118.75565903616082" y="2.2695931427451623E-4" end_time="09:25:20">
            </activity>
            <leg mode="scooter">
            </leg>
            <activity type="work" x="118.75565933109027" y="2.2718732002699607E-4" end_time="17:25:20">
            </activity>
            <leg mode="scooter">
            </leg>
            <activity type="home" x="118.75565903616082" y="2.2695931427451623E-4">
            </activity>
        </plan>

    </person>

    <!-- ====================================================================== -->

    <person id="基隆市仁愛區-基隆市安樂區1">
        <plan selected="yes">
            <activity type="home" x="118.75565903164629" y="2.2700547098916898E-4" end_time="09:41:45">
            </activity>
            <leg mode="walk">
            </leg>
            <activity type="work" x="118.75565860224843" y="2.2729643578275755E-4" end_time="17:41:45">
            </activity>
            <leg mode="walk">
            </leg>
            <activity type="home" x="118.75565903164629" y="2.2700547098916898E-4">
            </activity>
        </plan>

    </person>

    <!-- ====================================================================== -->

    <person id="基隆市信義區-基隆市中正區1">
        <plan selected="yes">
            <activity type="home" x="118.7556591657896" y="2.2713776668413575E-4" end_time="09:33:54">
            </activity>
            <leg mode="scooter">
            </leg>
            <activity type="work" x="118.75565924956719" y="2.2734385075774273E-4" end_time="17:33:54">
            </activity>
            <leg mode="scooter">
            </leg>
            <activity type="home" x="118.7556591657896" y="2.2713776668413575E-4">
            </activity>
        </plan>

    </person>

    <!-- ====================================================================== -->

    <person id="基隆市信義區-基隆市仁愛區1">
        <plan selected="yes">
            <activity type="home" x="118.75565924619443" y="2.2704290494449922E-4" end_time="09:26:25">
            </activity>
            <leg mode="scooter">
            </leg>
            <activity type="work" x="118.75565898042132" y="2.269650423971819E-4" end_time="17:26:25">
            </activity>
            <leg mode="scooter">
            </leg>
            <activity type="home" x="118.75565924619443" y="2.2704290494449922E-4">
            </activity>
        </plan>

    </person>

    <!-- ====================================================================== -->

    <person id="基隆市信義區-基隆市仁愛區2">
        <plan selected="yes">
            <activity type="home" x="118.75565919538526" y="2.270958811554293E-4" end_time="09:50:13">
            </activity>
            <leg mode="scooter">
            </leg>
            <activity type="work" x="118.75565898045092" y="2.2703736951422442E-4" end_time="17:50:13">
            </activity>
            <leg mode="scooter">
            </leg>
            <activity type="home" x="118.75565919538526" y="2.270958811554293E-4">
            </activity>
        </plan>

    </person>

    <!-- ====================================================================== -->

    <person id="基隆市信義區-基隆市仁愛區3">
        <plan selected="yes">
            <activity type="home" x="118.75565909223286" y="2.2705351715546145E-4" end_time="09:35:01">
            </activity>
            <leg mode="scooter">
            </leg>
            <activity type="work" x="118.7556589829652" y="2.2699486028712935E-4" end_time="17:35:01">
            </activity>
            <leg mode="scooter">
            </leg>
            <activity type="home" x="118.75565909223286" y="2.2705351715546145E-4">
            </activity>
        </plan>

    </person>

    <!-- ====================================================================== -->

    <person id="基隆市信義區-基隆市仁愛區4">
        <plan selected="yes">
            <activity type="home" x="118.75565920106848" y="2.2713083335896317E-4" end_time="09:22:39">
            </activity>
            <leg mode="walk">
            </leg>
            <activity type="work" x="118.75565904774471" y="2.2709612256236817E-4" end_time="17:22:39">
            </activity>
            <leg mode="walk">
            </leg>
            <activity type="home" x="118.75565920106848" y="2.2713083335896317E-4">
            </activity>
        </plan>

    </person>

    <!-- ====================================================================== -->

    <person id="基隆市信義區-基隆市信義區1">
        <plan selected="yes">
            <activity type="home" x="118.75565901252118" y="2.2712723761420675E-4" end_time="09:05:53">
            </activity>
            <leg mode="scooter">
            </leg>
            <activity type="work" x="118.75565906455545" y="2.2703870052863655E-4" end_time="17:05:53">
            </activity>
            <leg mode="scooter">
            </leg>
            <activity type="home" x="118.75565901252118" y="2.2712723761420675E-4">
            </activity>
        </plan>

    </person>

    <!-- ====================================================================== -->

    <person id="基隆市信義區-基隆市信義區2">
        <plan selected="yes">
            <activity type="home" x="118.75565919530392" y="2.270076940116012E-4" end_time="09:56:05">
            </activity>
            <leg mode="scooter">
            </leg>
            <activity type="work" x="118.75565919166888" y="2.269826441029295E-4" end_time="17:56:05">
            </activity>
            <leg mode="scooter">
            </leg>
            <activity type="home" x="118.75565919530392" y="2.270076940116012E-4">
            </activity>
        </plan>

    </person>

    <!-- ====================================================================== -->

    <person id="基隆市信義區-基隆市信義區3">
        <plan selected="yes">
            <activity type="home" x="118.75565929196088" y="2.2712599795915057E-4" end_time="09:32:31">